Version 4
SHEET 1 1648 680
WIRE 16 -80 -128 -80
WIRE 208 -80 16 -80
WIRE 208 -32 208 -80
WIRE 16 16 16 -80
WIRE 208 96 208 48
WIRE -128 112 -128 -80
WIRE 208 112 208 96
WIRE 16 192 16 96
WIRE 144 192 16 192
WIRE 160 192 144 192
WIRE 208 224 208 208
WIRE 16 240 16 192
WIRE 208 256 208 224
WIRE -128 416 -128 192
WIRE 16 416 16 320
WIRE 16 416 -128 416
WIRE 208 416 208 336
WIRE 208 416 16 416
WIRE 16 432 16 416
FLAG 16 432 0
FLAG 144 192 G
FLAG 208 224 S
FLAG 208 96 D
SYMBOL nmos 160 112 R0
SYMATTR InstName M1
SYMATTR Value ZVN3310
SYMATTR Prefix X
SYMBOL res 192 240 R0
SYMATTR InstName R_S
SYMATTR Value 68
SYMBOL res 192 -48 R0
SYMATTR InstName R_D
SYMATTR Value 168
SYMBOL res 0 0 R0
SYMATTR InstName R_1
SYMATTR Value 0.670Meg
SYMBOL res 0 224 R0
SYMATTR InstName R_2
SYMATTR Value 1Meg
SYMBOL voltage -128 96 R0
WINDOW 123 0 0 Left 0
WINDOW 39 0 0 Left 0
SYMATTR InstName V_DD
SYMATTR Value 5
TEXT 744 0 Left 2 !.SUBCKT ZVN3310 3 4 5\n    * NODES: DRAIN GATE SOURCE\n    M1 3 2 5 5 MOD1   \n    RG 4 2 356\n    RL 3 5 1E8\n    C1 2 5 21.5P\n    C2 3 2 2.5P \n    D1 5 3 DIODE1\n    *\n    .MODEL MOD1 NMOS VTO=1.736 RS=2.147 RD=1.682 IS=1E-15 KP=0.157\n    +CBD=25.5P PB=1\n    .MODEL DIODE1 D IS=6.12E-13 RS=.629\n    .ENDS ZVN3310
TEXT -160 456 Left 2 !.op
