Version 4
SHEET 1 880 680
WIRE 144 32 48 32
WIRE 320 32 224 32
WIRE 48 64 48 32
WIRE 320 64 320 32
WIRE 48 192 48 144
WIRE 192 192 48 192
WIRE 320 192 320 128
WIRE 320 192 192 192
WIRE 192 208 192 192
FLAG 192 208 0
SYMBOL voltage 48 48 R0
WINDOW 123 0 0 Left 0
WINDOW 39 24 124 Left 2
SYMATTR SpiceLine Rser=1000
SYMATTR InstName V1
SYMATTR Value SINE(0 2 50)
SYMBOL diode 304 64 R0
SYMATTR InstName D1
SYMATTR Value 1N914
SYMBOL res 240 16 R90
WINDOW 0 0 56 VBottom 2
WINDOW 3 32 56 VTop 2
SYMATTR InstName R1
SYMATTR Value 1000
TEXT 344 -8 Left 2 !.tran 50mSec
